  
       XFOIL         Version 6.99
  
 Calculated polar for: NACA 0004                                       
  
 1 1 Reynolds number fixed          Mach number fixed         
  
 xtrf =   1.000 (top)        1.000 (bottom)  
 Mach =   0.000     Re =     0.000 e 6     Ncrit =   9.000  9.000
  
   alpha    CL        CD       CDp       CM     Top_Xtr  Bot_Xtr  Top_Itr  Bot_Itr
  ------ -------- --------- --------- -------- -------- -------- -------- --------
  -3.000  -0.3399   0.00000  -0.00058   0.0860   0.0000   0.0000   0.0000   0.0000
  -2.000  -0.2267   0.00000  -0.00047   0.0574   0.0000   0.0000   0.0000   0.0000
  -1.000  -0.1134   0.00000  -0.00041   0.0287   0.0000   0.0000   0.0000   0.0000
   0.000   0.0000   0.00000  -0.00039  -0.0000   0.0000   0.0000   0.0000   0.0000
   1.000   0.1134   0.00000  -0.00041  -0.0287   0.0000   0.0000   0.0000   0.0000
   2.000   0.2267   0.00000  -0.00047  -0.0574   0.0000   0.0000   0.0000   0.0000
   3.000   0.3399   0.00000  -0.00058  -0.0860   0.0000   0.0000   0.0000   0.0000
